


 49 52  0  0000  0  0  0  0  0999 V2000
    8.9282    1.7500    0.0000 Cl  0  0  0  0  0  0  0  0  0  0  0
    8.9282   -4.2500    0.0000 Cl  0  0  0  0  0  0  0  0  0  0  0
    3.7321   -5.2500    0.0000 Cl  0  0  0  0  0  0  0  0  0  0  0
    2.0000   -2.2500    0.0000 Cl  0  0  0  0  0  0  0  0  0  0  0
    8.9282    6.7500    0.0000 Cl  0  0  0  0  0  0  0  0  0  0  0
    5.4641    6.7500    0.0000 Cl  0  0  0  0  0  0  0  0  0  0  0
   14.9904   -3.7500    0.0000 Cl  0  0  0  0  0  0  0  0  0  0  0
   13.2583   -6.7500    0.0000 Cl  0  0  0  0  0  0  0  0  0  0  0
    8.0622    0.2500    0.0000 N   0  0  0  0  0  0  0  0  0  0  0
    8.9282   -1.2500    0.0000 N   0  0  0  0  0  0  0  0  0  0  0
    4.5981   -2.7500    0.0000 N   0  0  0  0  0  0  0  0  0  0  0
    7.1962    4.7500    0.0000 N   0  0  0  0  0  0  0  0  0  0  0
   12.3923   -4.2500    0.0000 N   0  0  0  0  0  0  0  0  0  0  0
    8.0622   -0.7500    0.0000 C   0  0  0  0  0  0  0  0  0  0  0
    8.9282    0.7500    0.0000 C   0  0  0  0  0  0  0  0  0  0  0
    9.7942   -0.7500    0.0000 C   0  0  0  0  0  0  0  0  0  0  0
    9.7942    0.2500    0.0000 C   0  0  0  0  0  0  0  0  0  0  0
    7.1962    0.7500    0.0000 C   0  0  0  0  0  0  0  0  0  0  0
    8.9282   -2.2500    0.0000 C   0  0  0  0  0  0  0  0  0  0  0
    7.1962   -1.2500    0.0000 C   0  0  0  0  0  0  0  0  0  0  0
    7.1962    1.7500    0.0000 C   0  0  0  0  0  0  0  0  0  0  0
    9.7942   -2.7500    0.0000 C   0  0  0  0  0  0  0  0  0  0  0
    7.1962   -2.2500    0.0000 C   0  0  0  0  0  0  0  0  0  0  0
    6.3301   -0.7500    0.0000 C   0  0  0  0  0  0  0  0  0  0  0
    6.3301   -2.7500    0.0000 C   0  0  0  0  0  0  0  0  0  0  0
    5.4641   -1.2500    0.0000 C   0  0  0  0  0  0  0  0  0  0  0
    5.4641   -2.2500    0.0000 C   0  0  0  0  0  0  0  0  0  0  0
    8.0622    2.2500    0.0000 C   0  0  0  0  0  0  0  0  0  0  0
    9.7942   -3.7500    0.0000 C   0  0  0  0  0  0  0  0  0  0  0
    6.3301    2.2500    0.0000 C   0  0  0  0  0  0  0  0  0  0  0
   10.6603   -2.2500    0.0000 C   0  0  0  0  0  0  0  0  0  0  0
    8.0622    3.2500    0.0000 C   0  0  0  0  0  0  0  0  0  0  0
   10.6603   -4.2500    0.0000 C   0  0  0  0  0  0  0  0  0  0  0
    6.3301    3.2500    0.0000 C   0  0  0  0  0  0  0  0  0  0  0
   11.5263   -2.7500    0.0000 C   0  0  0  0  0  0  0  0  0  0  0
    7.1962    3.7500    0.0000 C   0  0  0  0  0  0  0  0  0  0  0
   11.5263   -3.7500    0.0000 C   0  0  0  0  0  0  0  0  0  0  0
    4.5981   -3.7500    0.0000 C   0  0  0  0  0  0  0  0  0  0  0
    3.7321   -2.2500    0.0000 C   0  0  0  0  0  0  0  0  0  0  0
    8.0622    5.2500    0.0000 C   0  0  0  0  0  0  0  0  0  0  0
    6.3301    5.2500    0.0000 C   0  0  0  0  0  0  0  0  0  0  0
   13.2583   -3.7500    0.0000 C   0  0  0  0  0  0  0  0  0  0  0
   12.3923   -5.2500    0.0000 C   0  0  0  0  0  0  0  0  0  0  0
    3.7321   -4.2500    0.0000 C   0  0  0  0  0  0  0  0  0  0  0
    2.8660   -2.7500    0.0000 C   0  0  0  0  0  0  0  0  0  0  0
    8.0622    6.2500    0.0000 C   0  0  0  0  0  0  0  0  0  0  0
    6.3301    6.2500    0.0000 C   0  0  0  0  0  0  0  0  0  0  0
   14.1244   -4.2500    0.0000 C   0  0  0  0  0  0  0  0  0  0  0
   13.2583   -5.7500    0.0000 C   0  0  0  0  0  0  0  0  0  0  0
  1 28  1  0
  2 29  1  0
  3 44  1  0
  4 45  1  0
  5 46  1  0
  6 47  1  0
  7 48  1  0
  8 49  1  0
  9 14  1  0
  9 15  1  0
  9 18  1  0
 10 14  1  0
 10 16  1  0
 10 19  1  0
 11 27  1  0
 11 38  1  0
 11 39  1  0
 12 36  1  0
 12 40  1  0
 12 41  1  0
 13 37  1  0
 13 42  1  0
 13 43  1  0
 14 20  1  0
 15 17  1  0
 16 17  1  0
 18 21  1  0
 19 22  1  0
 20 23  2  0
 20 24  1  0
 21 28  2  0
 21 30  1  0
 22 29  2  0
 22 31  1  0
 23 25  1  0
 24 26  2  0
 25 27  2  0
 26 27  1  0
 28 32  1  0
 29 33  1  0
 30 34  2  0
 31 35  2  0
 32 36  2  0
 33 37  2  0
 34 36  1  0
 35 37  1  0
 38 44  1  0
 39 45  1  0
 40 46  1  0
 41 47  1  0
 42 48  1  0
 43 49  1  0
M  END

> <PUBCHEM_BONDANNOTATIONS>
20  23  8
20  24  8
21  28  8
21  30  8
22  29  8
22  31  8
23  25  8
24  26  8
25  27  8
26  27  8
28  32  8
29  33  8
30  34  8
31  35  8
32  36  8
33  37  8
34  36  8
35  37  8

> <CSID>


$$$$
